<?xml version="1.0" encoding="UTF-8"?>

<!-- generated on 2026-02-24 21:50:22 by Eclipse SUMO netedit Version 1.24.0
<neteditConfiguration xmlns:xsi="http://www.w3.org/2001/XMLSchema-instance" xsi:noNamespaceSchemaLocation="http://sumo.dlr.de/xsd/neteditConfiguration.xsd">

    <input>
        <sumo-net-file value="C:\Users\ASUS\Desktop\research\DQN_adaptive\net.net.xml"/>
    </input>

    <output>
        <output-file value="C:\Users\ASUS\Desktop\research\DQN_adaptive\net.net.xml"/>
    </output>

    <processing>
        <geometry.min-radius.fix.railways value="false"/>
        <geometry.avoid-overlap value="false"/>
        <geometry.max-grade.fix value="false"/>
        <offset.disable-normalization value="true"/>
        <lefthand value="0"/>
    </processing>

    <junctions>
        <no-turnarounds value="true"/>
        <junctions.corner-detail value="5"/>
        <junctions.limit-turn-speed value="5.50"/>
        <rectangular-lane-cut value="0"/>
    </junctions>

    <pedestrian>
        <walkingareas value="0"/>
    </pedestrian>

</neteditConfiguration>
-->

<net version="1.20" junctionCornerDetail="5" limitTurnSpeed="5.50" avoidOverlap="0" xmlns:xsi="http://www.w3.org/2001/XMLSchema-instance" xsi:noNamespaceSchemaLocation="http://sumo.dlr.de/xsd/net_file.xsd">

    <location netOffset="0.00,0.00" convBoundary="-400.00,-600.02,2000.04,600.02" origBoundary="-10000000000.00,-10000000000.00,10000000000.00,10000000000.00" projParameter="!"/>

    <edge id=":J1_0" function="internal">
        <lane id=":J1_0_0" index="0" speed="6.51" length="9.03" shape="195.20,13.60 194.85,11.15 193.80,9.40 192.05,8.35 189.60,8.00"/>
    </edge>
    <edge id=":J1_1" function="internal">
        <lane id=":J1_1_0" index="0" speed="13.89" length="27.20" shape="195.20,13.60 195.20,-13.60"/>
        <lane id=":J1_1_1" index="1" speed="13.89" length="27.20" shape="198.40,13.60 198.40,-13.60"/>
    </edge>
    <edge id=":J1_3" function="internal">
        <lane id=":J1_3_0" index="0" speed="9.84" length="6.30" shape="198.40,13.60 199.11,7.34"/>
    </edge>
    <edge id=":J1_18" function="internal">
        <lane id=":J1_18_0" index="0" speed="9.84" length="15.70" shape="199.11,7.34 199.15,6.95 201.40,2.20 205.15,-0.65 210.40,-1.60"/>
    </edge>
    <edge id=":J1_4" function="internal">
        <lane id=":J1_4_0" index="0" speed="6.51" length="9.03" shape="210.40,8.00 207.95,8.35 206.20,9.40 205.15,11.15 204.80,13.60"/>
    </edge>
    <edge id=":J1_5" function="internal">
        <lane id=":J1_5_0" index="0" speed="13.89" length="20.80" shape="210.40,8.00 189.60,8.00"/>
        <lane id=":J1_5_1" index="1" speed="13.89" length="20.80" shape="210.40,4.80 189.60,4.80"/>
        <lane id=":J1_5_2" index="2" speed="13.89" length="20.80" shape="210.40,1.60 189.60,1.60"/>
    </edge>
    <edge id=":J1_8" function="internal">
        <lane id=":J1_8_0" index="0" speed="9.84" length="4.01" shape="210.40,1.60 206.45,0.89"/>
    </edge>
    <edge id=":J1_19" function="internal">
        <lane id=":J1_19_0" index="0" speed="9.84" length="17.98" shape="206.45,0.89 205.15,0.65 201.40,-2.20 199.15,-6.95 198.40,-13.60"/>
    </edge>
    <edge id=":J1_9" function="internal">
        <lane id=":J1_9_0" index="0" speed="6.51" length="9.03" shape="204.80,-13.60 205.15,-11.15 206.20,-9.40 207.95,-8.35 210.40,-8.00"/>
    </edge>
    <edge id=":J1_10" function="internal">
        <lane id=":J1_10_0" index="0" speed="13.89" length="27.20" shape="204.80,-13.60 204.80,13.60"/>
        <lane id=":J1_10_1" index="1" speed="13.89" length="27.20" shape="201.60,-13.60 201.60,13.60"/>
    </edge>
    <edge id=":J1_12" function="internal">
        <lane id=":J1_12_0" index="0" speed="9.84" length="6.30" shape="201.60,-13.60 200.89,-7.34"/>
    </edge>
    <edge id=":J1_20" function="internal">
        <lane id=":J1_20_0" index="0" speed="9.84" length="15.70" shape="200.89,-7.34 200.85,-6.95 198.60,-2.20 194.85,0.65 189.60,1.60"/>
    </edge>
    <edge id=":J1_13" function="internal">
        <lane id=":J1_13_0" index="0" speed="6.51" length="9.03" shape="189.60,-8.00 192.05,-8.35 193.80,-9.40 194.85,-11.15 195.20,-13.60"/>
    </edge>
    <edge id=":J1_14" function="internal">
        <lane id=":J1_14_0" index="0" speed="13.89" length="20.80" shape="189.60,-8.00 210.40,-8.00"/>
        <lane id=":J1_14_1" index="1" speed="13.89" length="20.80" shape="189.60,-4.80 210.40,-4.80"/>
        <lane id=":J1_14_2" index="2" speed="13.89" length="20.80" shape="189.60,-1.60 210.40,-1.60"/>
    </edge>
    <edge id=":J1_17" function="internal">
        <lane id=":J1_17_0" index="0" speed="9.84" length="4.01" shape="189.60,-1.60 193.55,-0.89"/>
    </edge>
    <edge id=":J1_21" function="internal">
        <lane id=":J1_21_0" index="0" speed="9.84" length="17.98" shape="193.55,-0.89 194.85,-0.65 198.60,2.20 200.85,6.95 201.60,13.60"/>
    </edge>
    <edge id=":J2_0" function="internal">
        <lane id=":J2_0_0" index="0" speed="6.51" length="9.03" shape="795.20,13.60 794.85,11.15 793.80,9.40 792.05,8.35 789.60,8.00"/>
    </edge>
    <edge id=":J2_1" function="internal">
        <lane id=":J2_1_0" index="0" speed="13.89" length="27.20" shape="795.20,13.60 795.20,-13.60"/>
        <lane id=":J2_1_1" index="1" speed="13.89" length="27.20" shape="798.40,13.60 798.40,-13.60"/>
    </edge>
    <edge id=":J2_3" function="internal">
        <lane id=":J2_3_0" index="0" speed="9.84" length="6.30" shape="798.40,13.60 799.11,7.34"/>
    </edge>
    <edge id=":J2_18" function="internal">
        <lane id=":J2_18_0" index="0" speed="9.84" length="15.70" shape="799.11,7.34 799.15,6.95 801.40,2.20 805.15,-0.65 810.40,-1.60"/>
    </edge>
    <edge id=":J2_4" function="internal">
        <lane id=":J2_4_0" index="0" speed="6.51" length="9.03" shape="810.40,8.00 807.95,8.35 806.20,9.40 805.15,11.15 804.80,13.60"/>
    </edge>
    <edge id=":J2_5" function="internal">
        <lane id=":J2_5_0" index="0" speed="13.89" length="20.80" shape="810.40,8.00 789.60,8.00"/>
        <lane id=":J2_5_1" index="1" speed="13.89" length="20.80" shape="810.40,4.80 789.60,4.80"/>
        <lane id=":J2_5_2" index="2" speed="13.89" length="20.80" shape="810.40,1.60 789.60,1.60"/>
    </edge>
    <edge id=":J2_8" function="internal">
        <lane id=":J2_8_0" index="0" speed="9.84" length="4.01" shape="810.40,1.60 806.45,0.89"/>
    </edge>
    <edge id=":J2_19" function="internal">
        <lane id=":J2_19_0" index="0" speed="9.84" length="17.98" shape="806.45,0.89 805.15,0.65 801.40,-2.20 799.15,-6.95 798.40,-13.60"/>
    </edge>
    <edge id=":J2_9" function="internal">
        <lane id=":J2_9_0" index="0" speed="6.51" length="9.03" shape="804.80,-13.60 805.15,-11.15 806.20,-9.40 807.95,-8.35 810.40,-8.00"/>
    </edge>
    <edge id=":J2_10" function="internal">
        <lane id=":J2_10_0" index="0" speed="13.89" length="27.20" shape="804.80,-13.60 804.80,13.60"/>
        <lane id=":J2_10_1" index="1" speed="13.89" length="27.20" shape="801.60,-13.60 801.60,13.60"/>
    </edge>
    <edge id=":J2_12" function="internal">
        <lane id=":J2_12_0" index="0" speed="9.84" length="6.30" shape="801.60,-13.60 800.89,-7.34"/>
    </edge>
    <edge id=":J2_20" function="internal">
        <lane id=":J2_20_0" index="0" speed="9.84" length="15.70" shape="800.89,-7.34 800.85,-6.95 798.60,-2.20 794.85,0.65 789.60,1.60"/>
    </edge>
    <edge id=":J2_13" function="internal">
        <lane id=":J2_13_0" index="0" speed="6.51" length="9.03" shape="789.60,-8.00 792.05,-8.35 793.80,-9.40 794.85,-11.15 795.20,-13.60"/>
    </edge>
    <edge id=":J2_14" function="internal">
        <lane id=":J2_14_0" index="0" speed="13.89" length="20.80" shape="789.60,-8.00 810.40,-8.00"/>
        <lane id=":J2_14_1" index="1" speed="13.89" length="20.80" shape="789.60,-4.80 810.40,-4.80"/>
        <lane id=":J2_14_2" index="2" speed="13.89" length="20.80" shape="789.60,-1.60 810.40,-1.60"/>
    </edge>
    <edge id=":J2_17" function="internal">
        <lane id=":J2_17_0" index="0" speed="9.84" length="4.01" shape="789.60,-1.60 793.55,-0.89"/>
    </edge>
    <edge id=":J2_21" function="internal">
        <lane id=":J2_21_0" index="0" speed="9.84" length="17.98" shape="793.55,-0.89 794.85,-0.65 798.60,2.20 800.85,6.95 801.60,13.60"/>
    </edge>
    <edge id=":J3_0" function="internal">
        <lane id=":J3_0_0" index="0" speed="6.51" length="9.03" shape="1395.20,13.60 1394.85,11.15 1393.80,9.40 1392.05,8.35 1389.60,8.00"/>
    </edge>
    <edge id=":J3_1" function="internal">
        <lane id=":J3_1_0" index="0" speed="13.89" length="27.20" shape="1395.20,13.60 1395.20,-13.60"/>
        <lane id=":J3_1_1" index="1" speed="13.89" length="27.20" shape="1398.40,13.60 1398.40,-13.60"/>
    </edge>
    <edge id=":J3_3" function="internal">
        <lane id=":J3_3_0" index="0" speed="9.84" length="6.30" shape="1398.40,13.60 1399.11,7.34"/>
    </edge>
    <edge id=":J3_18" function="internal">
        <lane id=":J3_18_0" index="0" speed="9.84" length="15.70" shape="1399.11,7.34 1399.15,6.95 1401.40,2.20 1405.15,-0.65 1410.40,-1.60"/>
    </edge>
    <edge id=":J3_4" function="internal">
        <lane id=":J3_4_0" index="0" speed="6.51" length="9.03" shape="1410.40,8.00 1407.95,8.35 1406.20,9.40 1405.15,11.15 1404.80,13.60"/>
    </edge>
    <edge id=":J3_5" function="internal">
        <lane id=":J3_5_0" index="0" speed="13.89" length="20.80" shape="1410.40,8.00 1389.60,8.00"/>
        <lane id=":J3_5_1" index="1" speed="13.89" length="20.80" shape="1410.40,4.80 1389.60,4.80"/>
        <lane id=":J3_5_2" index="2" speed="13.89" length="20.80" shape="1410.40,1.60 1389.60,1.60"/>
    </edge>
    <edge id=":J3_8" function="internal">
        <lane id=":J3_8_0" index="0" speed="9.84" length="4.01" shape="1410.40,1.60 1406.45,0.89"/>
    </edge>
    <edge id=":J3_19" function="internal">
        <lane id=":J3_19_0" index="0" speed="9.84" length="17.98" shape="1406.45,0.89 1405.15,0.65 1401.40,-2.20 1399.15,-6.95 1398.40,-13.60"/>
    </edge>
    <edge id=":J3_9" function="internal">
        <lane id=":J3_9_0" index="0" speed="6.51" length="9.03" shape="1404.80,-13.60 1405.15,-11.15 1406.20,-9.40 1407.95,-8.35 1410.40,-8.00"/>
    </edge>
    <edge id=":J3_10" function="internal">
        <lane id=":J3_10_0" index="0" speed="13.89" length="27.20" shape="1404.80,-13.60 1404.80,13.60"/>
        <lane id=":J3_10_1" index="1" speed="13.89" length="27.20" shape="1401.60,-13.60 1401.60,13.60"/>
    </edge>
    <edge id=":J3_12" function="internal">
        <lane id=":J3_12_0" index="0" speed="9.84" length="6.30" shape="1401.60,-13.60 1400.89,-7.34"/>
    </edge>
    <edge id=":J3_20" function="internal">
        <lane id=":J3_20_0" index="0" speed="9.84" length="15.70" shape="1400.89,-7.34 1400.85,-6.95 1398.60,-2.20 1394.85,0.65 1389.60,1.60"/>
    </edge>
    <edge id=":J3_13" function="internal">
        <lane id=":J3_13_0" index="0" speed="6.51" length="9.03" shape="1389.60,-8.00 1392.05,-8.35 1393.80,-9.40 1394.85,-11.15 1395.20,-13.60"/>
    </edge>
    <edge id=":J3_14" function="internal">
        <lane id=":J3_14_0" index="0" speed="13.89" length="20.80" shape="1389.60,-8.00 1410.40,-8.00"/>
        <lane id=":J3_14_1" index="1" speed="13.89" length="20.80" shape="1389.60,-4.80 1410.40,-4.80"/>
        <lane id=":J3_14_2" index="2" speed="13.89" length="20.80" shape="1389.60,-1.60 1410.40,-1.60"/>
    </edge>
    <edge id=":J3_17" function="internal">
        <lane id=":J3_17_0" index="0" speed="9.84" length="4.01" shape="1389.60,-1.60 1393.55,-0.89"/>
    </edge>
    <edge id=":J3_21" function="internal">
        <lane id=":J3_21_0" index="0" speed="9.84" length="17.98" shape="1393.55,-0.89 1394.85,-0.65 1398.60,2.20 1400.85,6.95 1401.60,13.60"/>
    </edge>

    <edge id="-E0" from="J1" to="J0" priority="-1" spreadType="center" shape="200.04,4.80 -400.00,4.80">
        <lane id="-E0_0" index="0" speed="13.89" length="589.60" shape="189.60,8.00 -400.00,8.00"/>
        <lane id="-E0_1" index="1" speed="13.89" length="589.60" shape="189.60,4.80 -400.00,4.80"/>
        <lane id="-E0_2" index="2" speed="13.89" length="589.60" shape="189.60,1.60 -400.00,1.60"/>
    </edge>
    <edge id="-E1" from="J2" to="J1" priority="-1" spreadType="center" shape="800.04,4.80 200.00,4.80">
        <lane id="-E1_0" index="0" speed="13.89" length="579.20" shape="789.60,8.00 210.40,8.00"/>
        <lane id="-E1_1" index="1" speed="13.89" length="579.20" shape="789.60,4.80 210.40,4.80"/>
        <lane id="-E1_2" index="2" speed="13.89" length="579.20" shape="789.60,1.60 210.40,1.60"/>
    </edge>
    <edge id="-E2" from="J3" to="J2" priority="-1" spreadType="center" shape="1400.04,4.80 800.00,4.80">
        <lane id="-E2_0" index="0" speed="13.89" length="579.20" shape="1389.60,8.00 810.40,8.00"/>
        <lane id="-E2_1" index="1" speed="13.89" length="579.20" shape="1389.60,4.80 810.40,4.80"/>
        <lane id="-E2_2" index="2" speed="13.89" length="579.20" shape="1389.60,1.60 810.40,1.60"/>
    </edge>
    <edge id="-E3" from="J4" to="J3" priority="-1" spreadType="center" shape="2000.04,4.80 1400.00,4.80">
        <lane id="-E3_0" index="0" speed="13.89" length="589.64" shape="2000.04,8.00 1410.40,8.00"/>
        <lane id="-E3_1" index="1" speed="13.89" length="589.64" shape="2000.04,4.80 1410.40,4.80"/>
        <lane id="-E3_2" index="2" speed="13.89" length="589.64" shape="2000.04,1.60 1410.40,1.60"/>
    </edge>
    <edge id="-E4" from="J1" to="J5" priority="-1" spreadType="center" shape="203.20,0.00 203.20,600.02">
        <lane id="-E4_0" index="0" speed="13.89" length="586.42" shape="204.80,13.60 204.80,600.02"/>
        <lane id="-E4_1" index="1" speed="13.89" length="586.42" shape="201.60,13.60 201.60,600.02"/>
    </edge>
    <edge id="-E5" from="J6" to="J1" priority="-1" spreadType="center" shape="203.20,-600.02 203.20,0.00">
        <lane id="-E5_0" index="0" speed="13.89" length="586.42" shape="204.80,-600.02 204.80,-13.60"/>
        <lane id="-E5_1" index="1" speed="13.89" length="586.42" shape="201.60,-600.02 201.60,-13.60"/>
    </edge>
    <edge id="-E6" from="J2" to="J7" priority="-1" spreadType="center" shape="803.20,0.00 803.20,600.02">
        <lane id="-E6_0" index="0" speed="13.89" length="586.42" shape="804.80,13.60 804.80,600.02"/>
        <lane id="-E6_1" index="1" speed="13.89" length="586.42" shape="801.60,13.60 801.60,600.02"/>
    </edge>
    <edge id="-E7" from="J8" to="J2" priority="-1" spreadType="center" shape="803.20,-600.02 803.20,0.00">
        <lane id="-E7_0" index="0" speed="13.89" length="586.42" shape="804.80,-600.02 804.80,-13.60"/>
        <lane id="-E7_1" index="1" speed="13.89" length="586.42" shape="801.60,-600.02 801.60,-13.60"/>
    </edge>
    <edge id="-E8" from="J3" to="J9" priority="-1" spreadType="center" shape="1403.20,0.00 1403.20,600.02">
        <lane id="-E8_0" index="0" speed="13.89" length="586.42" shape="1404.80,13.60 1404.80,600.02"/>
        <lane id="-E8_1" index="1" speed="13.89" length="586.42" shape="1401.60,13.60 1401.60,600.02"/>
    </edge>
    <edge id="-E9" from="J10" to="J3" priority="-1" spreadType="center" shape="1403.20,-600.00 1403.20,0.02">
        <lane id="-E9_0" index="0" speed="13.89" length="586.40" shape="1404.80,-600.00 1404.80,-13.60"/>
        <lane id="-E9_1" index="1" speed="13.89" length="586.40" shape="1401.60,-600.00 1401.60,-13.60"/>
    </edge>
    <edge id="E0" from="J0" to="J1" priority="-1" spreadType="center" shape="-400.00,-4.80 200.04,-4.80">
        <lane id="E0_0" index="0" speed="13.89" length="589.60" shape="-400.00,-8.00 189.60,-8.00"/>
        <lane id="E0_1" index="1" speed="13.89" length="589.60" shape="-400.00,-4.80 189.60,-4.80"/>
        <lane id="E0_2" index="2" speed="13.89" length="589.60" shape="-400.00,-1.60 189.60,-1.60"/>
    </edge>
    <edge id="E1" from="J1" to="J2" priority="-1" spreadType="center" shape="200.00,-4.80 800.04,-4.80">
        <lane id="E1_0" index="0" speed="13.89" length="579.20" shape="210.40,-8.00 789.60,-8.00"/>
        <lane id="E1_1" index="1" speed="13.89" length="579.20" shape="210.40,-4.80 789.60,-4.80"/>
        <lane id="E1_2" index="2" speed="13.89" length="579.20" shape="210.40,-1.60 789.60,-1.60"/>
    </edge>
    <edge id="E2" from="J2" to="J3" priority="-1" spreadType="center" shape="800.00,-4.80 1400.04,-4.80">
        <lane id="E2_0" index="0" speed="13.89" length="579.20" shape="810.40,-8.00 1389.60,-8.00"/>
        <lane id="E2_1" index="1" speed="13.89" length="579.20" shape="810.40,-4.80 1389.60,-4.80"/>
        <lane id="E2_2" index="2" speed="13.89" length="579.20" shape="810.40,-1.60 1389.60,-1.60"/>
    </edge>
    <edge id="E3" from="J3" to="J4" priority="-1" spreadType="center" shape="1400.00,-4.80 2000.04,-4.80">
        <lane id="E3_0" index="0" speed="13.89" length="589.64" shape="1410.40,-8.00 2000.04,-8.00"/>
        <lane id="E3_1" index="1" speed="13.89" length="589.64" shape="1410.40,-4.80 2000.04,-4.80"/>
        <lane id="E3_2" index="2" speed="13.89" length="589.64" shape="1410.40,-1.60 2000.04,-1.60"/>
    </edge>
    <edge id="E4" from="J5" to="J1" priority="-1" spreadType="center" shape="196.80,600.02 196.80,0.00">
        <lane id="E4_0" index="0" speed="13.89" length="586.42" shape="195.20,600.02 195.20,13.60"/>
        <lane id="E4_1" index="1" speed="13.89" length="586.42" shape="198.40,600.02 198.40,13.60"/>
    </edge>
    <edge id="E5" from="J1" to="J6" priority="-1" spreadType="center" shape="196.80,0.00 196.80,-600.02">
        <lane id="E5_0" index="0" speed="13.89" length="586.42" shape="195.20,-13.60 195.20,-600.02"/>
        <lane id="E5_1" index="1" speed="13.89" length="586.42" shape="198.40,-13.60 198.40,-600.02"/>
    </edge>
    <edge id="E6" from="J7" to="J2" priority="-1" spreadType="center" shape="796.80,600.02 796.80,0.00">
        <lane id="E6_0" index="0" speed="13.89" length="586.42" shape="795.20,600.02 795.20,13.60"/>
        <lane id="E6_1" index="1" speed="13.89" length="586.42" shape="798.40,600.02 798.40,13.60"/>
    </edge>
    <edge id="E7" from="J2" to="J8" priority="-1" spreadType="center" shape="796.80,0.00 796.80,-600.02">
        <lane id="E7_0" index="0" speed="13.89" length="586.42" shape="795.20,-13.60 795.20,-600.02"/>
        <lane id="E7_1" index="1" speed="13.89" length="586.42" shape="798.40,-13.60 798.40,-600.02"/>
    </edge>
    <edge id="E8" from="J9" to="J3" priority="-1" spreadType="center" shape="1396.80,600.02 1396.80,0.00">
        <lane id="E8_0" index="0" speed="13.89" length="586.42" shape="1395.20,600.02 1395.20,13.60"/>
        <lane id="E8_1" index="1" speed="13.89" length="586.42" shape="1398.40,600.02 1398.40,13.60"/>
    </edge>
    <edge id="E9" from="J3" to="J10" priority="-1" spreadType="center" shape="1396.80,0.02 1396.80,-600.00">
        <lane id="E9_0" index="0" speed="13.89" length="586.40" shape="1395.20,-13.60 1395.20,-600.00"/>
        <lane id="E9_1" index="1" speed="13.89" length="586.40" shape="1398.40,-13.60 1398.40,-600.00"/>
    </edge>

    <tlLogic id="J1" type="static" programID="0" offset="0">
        <phase duration="42" state="rrrrGGGGgrrrrGGGGg"/>
        <phase duration="3"  state="rrrryyyyyrrrryyyyy"/>
        <phase duration="42" state="GGGgrrrrrGGGgrrrrr"/>
        <phase duration="3"  state="yyyyrrrrryyyyrrrrr"/>
    </tlLogic>
    <tlLogic id="J2" type="static" programID="0" offset="0">
        <phase duration="42" state="rrrrGGGGgrrrrGGGGg"/>
        <phase duration="3"  state="rrrryyyyyrrrryyyyy"/>
        <phase duration="42" state="GGGgrrrrrGGGgrrrrr"/>
        <phase duration="3"  state="yyyyrrrrryyyyrrrrr"/>
    </tlLogic>
    <tlLogic id="J3" type="static" programID="0" offset="0">
        <phase duration="42" state="rrrrGGGGgrrrrGGGGg"/>
        <phase duration="3"  state="rrrryyyyyrrrryyyyy"/>
        <phase duration="42" state="GGGgrrrrrGGGgrrrrr"/>
        <phase duration="3"  state="yyyyrrrrryyyyrrrrr"/>
    </tlLogic>

    <junction id="J0" type="dead_end" x="-400.00" y="0.00" incLanes="-E0_0 -E0_1 -E0_2" intLanes="" shape="-400.00,0.00 -400.00,9.60 -400.00,-0.00"/>
    <junction id="J1" type="traffic_light" x="200.00" y="0.00" incLanes="E4_0 E4_1 -E1_0 -E1_1 -E1_2 -E5_0 -E5_1 E0_0 E0_1 E0_2" intLanes=":J1_0_0 :J1_1_0 :J1_1_1 :J1_18_0 :J1_4_0 :J1_5_0 :J1_5_1 :J1_5_2 :J1_19_0 :J1_9_0 :J1_10_0 :J1_10_1 :J1_20_0 :J1_13_0 :J1_14_0 :J1_14_1 :J1_14_2 :J1_21_0" shape="193.60,13.60 206.40,13.60 206.84,11.38 207.40,10.60 208.18,10.04 209.18,9.71 210.40,9.60 210.40,-9.60 208.18,-10.04 207.40,-10.60 206.84,-11.38 206.51,-12.38 206.40,-13.60 193.60,-13.60 193.16,-11.38 192.60,-10.60 191.82,-10.04 190.82,-9.71 189.60,-9.60 189.60,9.60 191.82,10.04 192.60,10.60 193.16,11.38 193.49,12.38">
        <request index="0"  response="000000000011100000" foes="000000000011100000" cont="0"/>
        <request index="1"  response="111110000111100000" foes="111111000111100000" cont="0"/>
        <request index="2"  response="111110000111100000" foes="111111000111100000" cont="0"/>
        <request index="3"  response="111100110111100000" foes="111100110111100000" cont="1"/>
        <request index="4"  response="000000000000000000" foes="000000110000000000" cont="0"/>
        <request index="5"  response="000001000000001000" foes="100001110000001111" cont="0"/>
        <request index="6"  response="000001000000001000" foes="100001110000001111" cont="0"/>
        <request index="7"  response="000001000000001000" foes="100001110000001111" cont="0"/>
        <request index="8"  response="011101000000001000" foes="011101110000001110" cont="1"/>
        <request index="9"  response="011100000000000000" foes="011100000000000000" cont="0"/>
        <request index="10" response="111100000111110000" foes="111100000111111000" cont="0"/>
        <request index="11" response="111100000111110000" foes="111100000111111000" cont="0"/>
        <request index="12" response="111100000111100110" foes="111100000111100110" cont="1"/>
        <request index="13" response="000000000000000000" foes="000000000000000110" cont="0"/>
        <request index="14" response="000001000000001000" foes="000001111100001110" cont="0"/>
        <request index="15" response="000001000000001000" foes="000001111100001110" cont="0"/>
        <request index="16" response="000001000000001000" foes="000001111100001110" cont="0"/>
        <request index="17" response="000001000011101000" foes="000001110011101110" cont="1"/>
    </junction>
    <junction id="J10" type="dead_end" x="1400.00" y="-600.00" incLanes="E9_0 E9_1" intLanes="" shape="1400.00,-600.00 1393.60,-600.00 1400.00,-600.00"/>
    <junction id="J2" type="traffic_light" x="800.00" y="0.00" incLanes="E6_0 E6_1 -E2_0 -E2_1 -E2_2 -E7_0 -E7_1 E1_0 E1_1 E1_2" intLanes=":J2_0_0 :J2_1_0 :J2_1_1 :J2_18_0 :J2_4_0 :J2_5_0 :J2_5_1 :J2_5_2 :J2_19_0 :J2_9_0 :J2_10_0 :J2_10_1 :J2_20_0 :J2_13_0 :J2_14_0 :J2_14_1 :J2_14_2 :J2_21_0" shape="793.60,13.60 806.40,13.60 806.84,11.38 807.40,10.60 808.18,10.04 809.18,9.71 810.40,9.60 810.40,-9.60 808.18,-10.04 807.40,-10.60 806.84,-11.38 806.51,-12.38 806.40,-13.60 793.60,-13.60 793.16,-11.38 792.60,-10.60 791.82,-10.04 790.82,-9.71 789.60,-9.60 789.60,9.60 791.82,10.04 792.60,10.60 793.16,11.38 793.49,12.38">
        <request index="0"  response="000000000011100000" foes="000000000011100000" cont="0"/>
        <request index="1"  response="111110000111100000" foes="111111000111100000" cont="0"/>
        <request index="2"  response="111110000111100000" foes="111111000111100000" cont="0"/>
        <request index="3"  response="111100110111100000" foes="111100110111100000" cont="1"/>
        <request index="4"  response="000000000000000000" foes="000000110000000000" cont="0"/>
        <request index="5"  response="000001000000001000" foes="100001110000001111" cont="0"/>
        <request index="6"  response="000001000000001000" foes="100001110000001111" cont="0"/>
        <request index="7"  response="000001000000001000" foes="100001110000001111" cont="0"/>
        <request index="8"  response="011101000000001000" foes="011101110000001110" cont="1"/>
        <request index="9"  response="011100000000000000" foes="011100000000000000" cont="0"/>
        <request index="10" response="111100000111110000" foes="111100000111111000" cont="0"/>
        <request index="11" response="111100000111110000" foes="111100000111111000" cont="0"/>
        <request index="12" response="111100000111100110" foes="111100000111100110" cont="1"/>
        <request index="13" response="000000000000000000" foes="000000000000000110" cont="0"/>
        <request index="14" response="000001000000001000" foes="000001111100001110" cont="0"/>
        <request index="15" response="000001000000001000" foes="000001111100001110" cont="0"/>
        <request index="16" response="000001000000001000" foes="000001111100001110" cont="0"/>
        <request index="17" response="000001000011101000" foes="000001110011101110" cont="1"/>
    </junction>
    <junction id="J3" type="traffic_light" x="1400.00" y="0.00" incLanes="E8_0 E8_1 -E3_0 -E3_1 -E3_2 -E9_0 -E9_1 E2_0 E2_1 E2_2" intLanes=":J3_0_0 :J3_1_0 :J3_1_1 :J3_18_0 :J3_4_0 :J3_5_0 :J3_5_1 :J3_5_2 :J3_19_0 :J3_9_0 :J3_10_0 :J3_10_1 :J3_20_0 :J3_13_0 :J3_14_0 :J3_14_1 :J3_14_2 :J3_21_0" shape="1393.60,13.60 1406.40,13.60 1406.84,11.38 1407.40,10.60 1408.18,10.04 1409.18,9.71 1410.40,9.60 1410.40,-9.60 1408.18,-10.04 1407.40,-10.60 1406.84,-11.38 1406.51,-12.38 1406.40,-13.60 1393.60,-13.60 1393.16,-11.38 1392.60,-10.60 1391.82,-10.04 1390.82,-9.71 1389.60,-9.60 1389.60,9.60 1391.82,10.04 1392.60,10.60 1393.16,11.38 1393.49,12.38">
        <request index="0"  response="000000000011100000" foes="000000000011100000" cont="0"/>
        <request index="1"  response="111110000111100000" foes="111111000111100000" cont="0"/>
        <request index="2"  response="111110000111100000" foes="111111000111100000" cont="0"/>
        <request index="3"  response="111100110111100000" foes="111100110111100000" cont="1"/>
        <request index="4"  response="000000000000000000" foes="000000110000000000" cont="0"/>
        <request index="5"  response="000001000000001000" foes="100001110000001111" cont="0"/>
        <request index="6"  response="000001000000001000" foes="100001110000001111" cont="0"/>
        <request index="7"  response="000001000000001000" foes="100001110000001111" cont="0"/>
        <request index="8"  response="011101000000001000" foes="011101110000001110" cont="1"/>
        <request index="9"  response="011100000000000000" foes="011100000000000000" cont="0"/>
        <request index="10" response="111100000111110000" foes="111100000111111000" cont="0"/>
        <request index="11" response="111100000111110000" foes="111100000111111000" cont="0"/>
        <request index="12" response="111100000111100110" foes="111100000111100110" cont="1"/>
        <request index="13" response="000000000000000000" foes="000000000000000110" cont="0"/>
        <request index="14" response="000001000000001000" foes="000001111100001110" cont="0"/>
        <request index="15" response="000001000000001000" foes="000001111100001110" cont="0"/>
        <request index="16" response="000001000000001000" foes="000001111100001110" cont="0"/>
        <request index="17" response="000001000011101000" foes="000001110011101110" cont="1"/>
    </junction>
    <junction id="J4" type="dead_end" x="2000.00" y="0.00" incLanes="E3_0 E3_1 E3_2" intLanes="" shape="2000.00,-0.00 2000.00,-9.60 2000.00,0.00"/>
    <junction id="J5" type="dead_end" x="200.00" y="600.00" incLanes="-E4_0 -E4_1" intLanes="" shape="200.00,600.00 206.40,600.00 200.00,600.00"/>
    <junction id="J6" type="dead_end" x="200.00" y="-600.00" incLanes="E5_0 E5_1" intLanes="" shape="200.00,-600.00 193.60,-600.00 200.00,-600.00"/>
    <junction id="J7" type="dead_end" x="800.00" y="600.00" incLanes="-E6_0 -E6_1" intLanes="" shape="800.00,600.00 806.40,600.00 800.00,600.00"/>
    <junction id="J8" type="dead_end" x="800.00" y="-600.00" incLanes="E7_0 E7_1" intLanes="" shape="800.00,-600.00 793.60,-600.00 800.00,-600.00"/>
    <junction id="J9" type="dead_end" x="1400.00" y="600.00" incLanes="-E8_0 -E8_1" intLanes="" shape="1400.00,600.00 1406.40,600.00 1400.00,600.00"/>

    <junction id=":J1_18_0" type="internal" x="199.11" y="7.34" incLanes=":J1_3_0 -E5_0 -E5_1" intLanes=":J1_5_0 :J1_5_1 :J1_5_2 :J1_8_0 :J1_9_0 :J1_10_0 :J1_10_1 :J1_14_0 :J1_14_1 :J1_14_2 :J1_17_0"/>
    <junction id=":J1_19_0" type="internal" x="206.45" y="0.89" incLanes=":J1_8_0 E0_0 E0_1 E0_2" intLanes=":J1_1_0 :J1_1_1 :J1_3_0 :J1_10_0 :J1_10_1 :J1_12_0 :J1_13_0 :J1_14_0 :J1_14_1 :J1_14_2"/>
    <junction id=":J1_20_0" type="internal" x="200.89" y="-7.34" incLanes=":J1_12_0 E4_0 E4_1" intLanes=":J1_0_0 :J1_1_0 :J1_1_1 :J1_5_0 :J1_5_1 :J1_5_2 :J1_8_0 :J1_14_0 :J1_14_1 :J1_14_2 :J1_17_0"/>
    <junction id=":J1_21_0" type="internal" x="193.55" y="-0.89" incLanes=":J1_17_0 -E1_0 -E1_1 -E1_2" intLanes=":J1_1_0 :J1_1_1 :J1_3_0 :J1_4_0 :J1_5_0 :J1_5_1 :J1_5_2 :J1_10_0 :J1_10_1 :J1_12_0"/>
    <junction id=":J2_18_0" type="internal" x="799.11" y="7.34" incLanes=":J2_3_0 -E7_0 -E7_1" intLanes=":J2_5_0 :J2_5_1 :J2_5_2 :J2_8_0 :J2_9_0 :J2_10_0 :J2_10_1 :J2_14_0 :J2_14_1 :J2_14_2 :J2_17_0"/>
    <junction id=":J2_19_0" type="internal" x="806.45" y="0.89" incLanes=":J2_8_0 E1_0 E1_1 E1_2" intLanes=":J2_1_0 :J2_1_1 :J2_3_0 :J2_10_0 :J2_10_1 :J2_12_0 :J2_13_0 :J2_14_0 :J2_14_1 :J2_14_2"/>
    <junction id=":J2_20_0" type="internal" x="800.89" y="-7.34" incLanes=":J2_12_0 E6_0 E6_1" intLanes=":J2_0_0 :J2_1_0 :J2_1_1 :J2_5_0 :J2_5_1 :J2_5_2 :J2_8_0 :J2_14_0 :J2_14_1 :J2_14_2 :J2_17_0"/>