<?xml version="1.0" encoding="UTF-8"?>

<!-- generated on 2026-02-26 16:50:40 by Eclipse SUMO sumo Version 1.24.0
-->

<sumoConfiguration xmlns:xsi="http://www.w3.org/2001/XMLSchema-instance" xsi:noNamespaceSchemaLocation="http://sumo.dlr.de/xsd/sumoConfiguration.xsd">

    <input>
        <net-file value="net.net.xml"/>
        <route-files value="route.rou.xml"/>
    </input>

</sumoConfiguration>
