<?xml version="1.0" encoding="UTF-8"?>
<routes>
    <vType id="car" accel="2.6" decel="4.5" sigma="0.5" length="5" maxSpeed="50"/>

    <route id="EB" edges="E0 E1 E2 E3"/>
    <route id="WB" edges="-E3 -E2 -E1 -E0"/>
    <route id="NB" edges="E4 E1 E6"/>
    <route id="SB" edges="-E5 -E1 -E7"/>

    <vehicle id="EB_0" type="car" route="EB" depart="7.92"/>
    <vehicle id="EB_1" type="car" route="EB" depart="11.51"/>
    <vehicle id="EB_2" type="car" route="EB" depart="14.63"/>
    <vehicle id="EB_3" type="car" route="EB" depart="18.00"/>
    <vehicle id="EB_4" type="car" route="EB" depart="21.00"/>
    <vehicle id="EB_5" type="car" route="EB" depart="24.25"/>
    <vehicle id="EB_6" type="car" route="EB" depart="27.67"/>
    <vehicle id="EB_7" type="car" route="EB" depart="32.40"/>
    <vehicle id="EB_8" type="car" route="EB" depart="35.60"/>
    <vehicle id="EB_9" type="car" route="EB" depart="39.82"/>
    <vehicle id="EB_10" type="car" route="EB" depart="43.16"/>
    <vehicle id="EB_11" type="car" route="EB" depart="47.38"/>
    <vehicle id="EB_12" type="car" route="EB" depart="51.55"/>
    <vehicle id="EB_13" type="car" route="EB" depart="55.82"/>
    <vehicle id="EB_14" type="car" route="EB" depart="59.15"/>
    <vehicle id="EB_15" type="car" route="EB" depart="64.08"/>
    <vehicle id="EB_16" type="car" route="EB" depart="67.90"/>
    <vehicle id="EB_17" type="car" route="EB" depart="71.20"/>
    <vehicle id="EB_18" type="car" route="EB" depart="74.38"/>
    <vehicle id="EB_19" type="car" route="EB" depart="78.37"/>
    <vehicle id="EB_20" type="car" route="EB" depart="82.73"/>
    <vehicle id="EB_21" type="car" route="EB" depart="87.19"/>
    <vehicle id="EB_22" type="car" route="EB" depart="91.96"/>
    <vehicle id="EB_23" type="car" route="EB" depart="96.13"/>
    <vehicle id="EB_24" type="car" route="EB" depart="99.65"/>
    <vehicle id="EB_25" type="car" route="EB" depart="102.90"/>
    <vehicle id="EB_26" type="car" route="EB" depart="107.57"/>
    <vehicle id="EB_27" type="car" route="EB" depart="110.99"/>
    <vehicle id="EB_28" type="car" route="EB" depart="115.87"/>
    <vehicle id="EB_29" type="car" route="EB" depart="120.22"/>
    <vehicle id="EB_30" type="car" route="EB" depart="123.57"/>
    <vehicle id="EB_31" type="car" route="EB" depart="127.93"/>
    <vehicle id="EB_32" type="car" route="EB" depart="132.69"/>
    <vehicle id="EB_33" type="car" route="EB" depart="136.54"/>
    <vehicle id="EB_34" type="car" route="EB" depart="141.03"/>
    <vehicle id="EB_35" type="car" route="EB" depart="145.40"/>
    <vehicle id="EB_36" type="car" route="EB" depart="149.01"/>
    <vehicle id="EB_37" type="car" route="EB" depart="152.96"/>
    <vehicle id="EB_38" type="car" route="EB" depart="156.19"/>
    <vehicle id="EB_39" type="car" route="EB" depart="159.21"/>
    <vehicle id="EB_40" type="car" route="EB" depart="163.48"/>
    <vehicle id="EB_41" type="car" route="EB" depart="166.74"/>
    <vehicle id="EB_42" type="car" route="EB" depart="171.19"/>
    <vehicle id="EB_43" type="car" route="EB" depart="175.78"/>
    <vehicle id="EB_44" type="car" route="EB" depart="179.98"/>
    <vehicle id="EB_45" type="car" route="EB" depart="183.32"/>
    <vehicle id="EB_46" type="car" route="EB" depart="186.94"/>
    <vehicle id="EB_47" type="car" route="EB" depart="189.96"/>
    <vehicle id="EB_48" type="car" route="EB" depart="193.50"/>
    <vehicle id="EB_49" type="car" route="EB" depart="196.69"/>
    <vehicle id="EB_50" type="car" route="EB" depart="200.77"/>
    <vehicle id="EB_51" type="car" route="EB" depart="204.10"/>
    <vehicle id="EB_52" type="car" route="EB" depart="208.19"/>
    <vehicle id="EB_53" type="car" route="EB" depart="212.85"/>
    <vehicle id="EB_54" type="car" route="EB" depart="216.80"/>
    <vehicle id="EB_55" type="car" route="EB" depart="220.87"/>
    <vehicle id="EB_56" type="car" route="EB" depart="224.80"/>
    <vehicle id="EB_57" type="car" route="EB" depart="228.36"/>
    <vehicle id="EB_58" type="car" route="EB" depart="232.70"/>
    <vehicle id="EB_59" type="car" route="EB" depart="236.12"/>
    <vehicle id="EB_60" type="car" route="EB" depart="240.09"/>
    <vehicle id="EB_61" type="car" route="EB" depart="244.67"/>
    <vehicle id="EB_62" type="car" route="EB" depart="249.09"/>
    <vehicle id="EB_63" type="car" route="EB" depart="252.27"/>
    <vehicle id="EB_64" type="car" route="EB" depart="255.34"/>
    <vehicle id="EB_65" type="car" route="EB" depart="259.06"/>
    <vehicle id="EB_66" type="car" route="EB" depart="264.00"/>
    <vehicle id="EB_67" type="car" route="EB" depart="267.90"/>
    <vehicle id="EB_68" type="car" route="EB" depart="272.89"/>
    <vehicle id="EB_69" type="car" route="EB" depart="275.98"/>
    <vehicle id="EB_70" type="car" route="EB" depart="280.41"/>
    <vehicle id="EB_71" type="car" route="EB" depart="284.59"/>
    <vehicle id="EB_72" type="car" route="EB" depart="288.06"/>
    <vehicle id="EB_73" type="car" route="EB" depart="291.53"/>
    <vehicle id="EB_74" type="car" route="EB" depart="295.97"/>
    <vehicle id="EB_75" type="car" route="EB" depart="299.59"/>
    <vehicle id="EB_76" type="car" route="EB" depart="302.63"/>
    <vehicle id="EB_77" type="car" route="EB" depart="306.05"/>
    <vehicle id="EB_78" type="car" route="EB" depart="310.46"/>
    <vehicle id="EB_79" type="car" route="EB" depart="313.52"/>
    <vehicle id="EB_80" type="car" route="EB" depart="316.99"/>
    <vehicle id="EB_81" type="car" route="EB" depart="320.74"/>
    <vehicle id="EB_82" type="car" route="EB" depart="324.36"/>
    <vehicle id="EB_83" type="car" route="EB" depart="328.26"/>
    <vehicle id="EB_84" type="car" route="EB" depart="332.18"/>
    <vehicle id="EB_85" type="car" route="EB" depart="335.75"/>
    <vehicle id="EB_86" type="car" route="EB" depart="340.55"/>
    <vehicle id="EB_87" type="car" route="EB" depart="344.04"/>
    <vehicle id="EB_88" type="car" route="EB" depart="347.71"/>
    <vehicle id="EB_89" type="car" route="EB" depart="350.89"/>
    <vehicle id="EB_90" type="car" route="EB" depart="355.87"/>
    <vehicle id="EB_91" type="car" route="EB" depart="359.95"/>
    <vehicle id="EB_92" type="car" route="EB" depart="363.10"/>
    <vehicle id="EB_93" type="car" route="EB" depart="366.95"/>
    <vehicle id="EB_94" type="car" route="EB" depart="370.69"/>
    <vehicle id="EB_95" type="car" route="EB" depart="374.42"/>
    <vehicle id="EB_96" type="car" route="EB" depart="377.88"/>
    <vehicle id="EB_97" type="car" route="EB" depart="381.73"/>
    <vehicle id="EB_98" type="car" route="EB" depart="385.73"/>
    <vehicle id="EB_99" type="car" route="EB" depart="390.70"/>
    <vehicle id="EB_100" type="car" route="EB" depart="394.82"/>
    <vehicle id="EB_101" type="car" route="EB" depart="398.69"/>
    <vehicle id="EB_102" type="car" route="EB" depart="402.62"/>
    <vehicle id="EB_103" type="car" route="EB" depart="406.86"/>
    <vehicle id="EB_104" type="car" route="EB" depart="410.16"/>
    <vehicle id="EB_105" type="car" route="EB" depart="413.52"/>
    <vehicle id="EB_106" type="car" route="EB" depart="418.05"/>
    <vehicle id="EB_107" type="car" route="EB" depart="422.67"/>
    <vehicle id="EB_108" type="car" route="EB" depart="427.14"/>
    <vehicle id="EB_109" type="car" route="EB" depart="430.14"/>
    <vehicle id="EB_110" type="car" route="EB" depart="433.67"/>
    <vehicle id="EB_111" type="car" route="EB" depart="438.52"/>
    <vehicle id="EB_112" type="car" route="EB" depart="442.09"/>
    <vehicle id="EB_113" type="car" route="EB" depart="445.65"/>
    <vehicle id="EB_114" type="car" route="EB" depart="450.32"/>
    <vehicle id="EB_115" type="car" route="EB" depart="454.36"/>
    <vehicle id="EB_116" type="car" route="EB" depart="458.67"/>
    <vehicle id="EB_117" type="car" route="EB" depart="462.02"/>
    <vehicle id="EB_118" type="car" route="EB" depart="466.57"/>
    <vehicle id="EB_119" type="car" route="EB" depart="470.64"/>
    <vehicle id="EB_120" type="car" route="EB" depart="474.78"/>
    <vehicle id="EB_121" type="car" route="EB" depart="478.93"/>
    <vehicle id="EB_122" type="car" route="EB" depart="483.32"/>
    <vehicle id="EB_123" type="car" route="EB" depart="486.42"/>
    <vehicle id="EB_124" type="car" route="EB" depart="490.55"/>
    <vehicle id="EB_125" type="car" route="EB" depart="494.07"/>
    <vehicle id="EB_126" type="car" route="EB" depart="498.79"/>
    <vehicle id="EB_127" type="car" route="EB" depart="503.69"/>
    <vehicle id="EB_128" type="car" route="EB" depart="507.02"/>
    <vehicle id="EB_129" type="car" route="EB" depart="511.73"/>
    <vehicle id="EB_130" type="car" route="EB" depart="515.83"/>
    <vehicle id="EB_131" type="car" route="EB" depart="518.91"/>
    <vehicle id="EB_132" type="car" route="EB" depart="522.72"/>
    <vehicle id="EB_133" type="car" route="EB" depart="525.81"/>
    <vehicle id="EB_134" type="car" route="EB" depart="530.55"/>
    <vehicle id="EB_135" type="car" route="EB" depart="534.63"/>
    <vehicle id="EB_136" type="car" route="EB" depart="539.39"/>
    <vehicle id="EB_137" type="car" route="EB" depart="542.42"/>
    <vehicle id="EB_138" type="car" route="EB" depart="546.77"/>
    <vehicle id="EB_139" type="car" route="EB" depart="551.45"/>
    <vehicle id="EB_140" type="car" route="EB" depart="555.69"/>
    <vehicle id="EB_141" type="car" route="EB" depart="560.04"/>
    <vehicle id="EB_142" type="car" route="EB" depart="564.78"/>
    <vehicle id="EB_143" type="car" route="EB" depart="568.61"/>
    <vehicle id="EB_144" type="car" route="EB" depart="572.26"/>
    <vehicle id="EB_145" type="car" route="EB" depart="575.95"/>
    <vehicle id="EB_146" type="car" route="EB" depart="578.99"/>
    <vehicle id="EB_147" type="car" route="EB" depart="582.28"/>
    <vehicle id="EB_148" type="car" route="EB" depart="585.94"/>
    <vehicle id="EB_149" type="car" route="EB" depart="590.40"/>
    <vehicle id="EB_150" type="car" route="EB" depart="593.55"/>
    <vehicle id="EB_151" type="car" route="EB" depart="598.24"/>
    <vehicle id="EB_152" type="car" route="EB" depart="602.06"/>
    <vehicle id="EB_153" type="car" route="EB" depart="605.53"/>
    <vehicle id="EB_154" type="car" route="EB" depart="609.40"/>
    <vehicle id="EB_155" type="car" route="EB" depart="612.92"/>
    <vehicle id="EB_156" type="car" route="EB" depart="616.81"/>
    <vehicle id="EB_157" type="car" route="EB" depart="620.07"/>
    <vehicle id="EB_158" type="car" route="EB" depart="625.03"/>
    <vehicle id="EB_159" type="car" route="EB" depart="629.65"/>
    <vehicle id="EB_160" type="car" route="EB" depart="632.79"/>
    <vehicle id="EB_161" type="car" route="EB" depart="636.38"/>
    <vehicle id="EB_162" type="car" route="EB" depart="639.44"/>
    <vehicle id="EB_163" type="car" route="EB" depart="644.36"/>
    <vehicle id="EB_164" type="car" route="EB" depart="647.36"/>
    <vehicle id="EB_165" type="car" route="EB" depart="652.29"/>
    <vehicle id="EB_166" type="car" route="EB" depart="656.91"/>
    <vehicle id="EB_167" type="car" route="EB" depart="660.34"/>
    <vehicle id="EB_168" type="car" route="EB" depart="665.21"/>
    <vehicle id="EB_169" type="car" route="EB" depart="668.34"/>
    <vehicle id="EB_170" type="car" route="EB" depart="673.14"/>
    <vehicle id="EB_171" type="car" route="EB" depart="677.25"/>
    <vehicle id="EB_172" type="car" route="EB" depart="681.70"/>
    <vehicle id="EB_173" type="car" route="EB" depart="684.73"/>
    <vehicle id="EB_174" type="car" route="EB" depart="689.34"/>
    <vehicle id="EB_175" type="car" route="EB" depart="693.52"/>
    <vehicle id="EB_176" type="car" route="EB" depart="697.42"/>
    <vehicle id="EB_177" type="car" route="EB" depart="701.96"/>
    <vehicle id="EB_178" type="car" route="EB" depart="706.93"/>
    <vehicle id="EB_179" type="car" route="EB" depart="711.86"/>
    <vehicle id="EB_180" type="car" route="EB" depart="715.69"/>
    <vehicle id="EB_181" type="car" route="EB" depart="719.61"/>
    <vehicle id="EB_182" type="car" route="EB" depart="723.45"/>
    <vehicle id="EB_183" type="car" route="EB" depart="727.70"/>
    <vehicle id="EB_184" type="car" route="EB" depart="731.50"/>
    <vehicle id="EB_185" type="car" route="EB" depart="735.50"/>
    <vehicle id="EB_186" type="car" route="EB" depart="738.99"/>
    <vehicle id="EB_187" type="car" route="EB" depart="743.59"/>
    <vehicle id="EB_188" type="car" route="EB" depart="748.32"/>
    <vehicle id="EB_189" type="car" route="EB" depart="752.07"/>
    <vehicle id="EB_190" type="car" route="EB" depart="756.65"/>
    <vehicle id="EB_191" type="car" route="EB" depart="759.88"/>
    <vehicle id="EB_192" type="car" route="EB" depart="763.64"/>
    <vehicle id="EB_193" type="car" route="EB" depart="767.95"/>
    <vehicle id="EB_194" type="car" route="EB" depart="772.61"/>
    <vehicle id="EB_195" type="car" route="EB" depart="777.49"/>
    <vehicle id="EB_196" type="car" route="EB" depart="781.43"/>
    <vehicle id="EB_197" type="car" route="EB" depart="784.45"/>
    <vehicle id="EB_198" type="car" route="EB" depart="788.89"/>
    <vehicle id="EB_199" type="car" route="EB" depart="792.38"/>
    <vehicle id="EB_200" type="car" route="EB" depart="795.54"/>
    <vehicle id="EB_201" type="car" route="EB" depart="799.81"/>
    <vehicle id="EB_202" type="car" route="EB" depart="802.96"/>
    <vehicle id="EB_203" type="car" route="EB" depart="806.01"/>
    <vehicle id="EB_204" type="car" route="EB" depart="809.54"/>
    <vehicle id="EB_205" type="car" route="EB" depart="814.21"/>
    <vehicle id="EB_206" type="car" route="EB" depart="818.73"/>
    <vehicle id="EB_207" type="car" route="EB" depart="821.82"/>
    <vehicle id="EB_208" type="car" route="EB" depart="826.57"/>
    <vehicle id="EB_209" type="car" route="EB" depart="831.07"/>
    <vehicle id="EB_210" type="car" route="EB" depart="834.34"/>
    <vehicle id="EB_211" type="car" route="EB" depart="838.38"/>
    <vehicle id="EB_212" type="car" route="EB" depart="841.97"/>
    <vehicle id="EB_213" type="car" route="EB" depart="846.64"/>
    <vehicle id="EB_214" type="car" route="EB" depart="850.10"/>
    <vehicle id="EB_215" type="car" route="EB" depart="853.60"/>
    <vehicle id="EB_216" type="car" route="EB" depart="858.47"/>
    <vehicle id="EB_217" type="car" route="EB" depart="862.53"/>
    <vehicle id="EB_218" type="car" route="EB" depart="865.53"/>
    <vehicle id="EB_219" type="car" route="EB" depart="869.17"/>
    <vehicle id="EB_220" type="car" route="EB" depart="872.84"/>
    <vehicle id="EB_221" type="car" route="EB" depart="877.13"/>
    <vehicle id="EB_222" type="car" route="EB" depart="880.67"/>
    <vehicle id="EB_223" type="car" route="EB" depart="885.45"/>
    <vehicle id="EB_224" type="car" route="EB" depart="890.17"/>
    <vehicle id="EB_225" type="car" route="EB" depart="893.78"/>
    <vehicle id="EB_226" type="car" route="EB" depart="897.26"/>
    <vehicle id="EB_227" type="car" route="EB" depart="901.36"/>
    <vehicle id="EB_228" type="car" route="EB" depart="904.39"/>
    <vehicle id="EB_229" type="car" route="EB" depart="908.06"/>
    <vehicle id="EB_230" type="car" route="EB" depart="911.06"/>
    <vehicle id="EB_231" type="car" route="EB" depart="914.31"/>
    <vehicle id="EB_232" type="car" route="EB" depart="917.56"/>
    <vehicle id="EB_233" type="car" route="EB" depart="921.42"/>
    <vehicle id="EB_234" type="car" route="EB" depart="925.46"/>
    <vehicle id="EB_235" type="car" route="EB" depart="928.61"/>
    <vehicle id="EB_236" type="car" route="EB" depart="932.54"/>
    <vehicle id="EB_237" type="car" route="EB" depart="936.25"/>
    <vehicle id="EB_238" type="car" route="EB" depart="939.52"/>
    <vehicle id="EB_239" type="car" route="EB" depart="943.83"/>
    <vehicle id="EB_240" type="car" route="EB" depart="945.50"/>
    <vehicle id="EB_241" type="car" route="EB" depart="946.77"/>
    <vehicle id="EB_242" type="car" route="EB" depart="948.10"/>
    <vehicle id="EB_243" type="car" route="EB" depart="949.89"/>
    <vehicle id="EB_244" type="car" route="EB" depart="951.30"/>
    <vehicle id="EB_245" type="car" route="EB" depart="952.83"/>
    <vehicle id="EB_246" type="car" route="EB" depart="954.81"/>
    <vehicle id="EB_247" type="car" route="EB" depart="956.39"/>
    <vehicle id="EB_248" type="car" route="EB" depart="958.37"/>
    <vehicle id="EB_249" type="car" route="EB" depart="960.36"/>
    <vehicle id="EB_250" type="car" route="EB" depart="961.80"/>
    <vehicle id="EB_251" type="car" route="EB" depart="963.80"/>
    <vehicle id="EB_252" type="car" route="EB" depart="965.50"/>
    <vehicle id="EB_253" type="car" route="EB" depart="966.96"/>
    <vehicle id="EB_254" type="car" route="EB" depart="968.82"/>
    <vehicle id="EB_255" type="car" route="EB" depart="970.80"/>
    <vehicle id="EB_256" type="car" route="EB" depart="972.33"/>
    <vehicle id="EB_257" type="car" route="EB" depart="973.62"/>
    <vehicle id="EB_258" type="car" route="EB" depart="975.06"/>
    <vehicle id="EB_259" type="car" route="EB" depart="976.44"/>
    <vehicle id="EB_260" type="car" route="EB" depart="978.12"/>
    <vehicle id="EB_261" type="car" route="EB" depart="980.10"/>
    <vehicle id="EB_262" type="car" route="EB" depart="981.41"/>
    <vehicle id="EB_263" type="car" route="EB" depart="982.85"/>
    <vehicle id="EB_264" type="car" route="EB" depart="984.47"/>
    <vehicle id="EB_265" type="car" route="EB" depart="986.01"/>
    <vehicle id="EB_266" type="car" route="EB" depart="987.87"/>
    <vehicle id="EB_267" type="car" route="EB" depart="989.19"/>
    <vehicle id="EB_268" type="car" route="EB" depart="990.66"/>
    <vehicle id="EB_269" type="car" route="EB" depart="992.60"/>
    <vehicle id="EB_270" type="car" route="EB" depart="994.45"/>
    <vehicle id="EB_271" type="car" route="EB" depart="995.72"/>
    <vehicle id="EB_272" type="car" route="EB" depart="997.60"/>
    <vehicle id="EB_273" type="car" route="EB" depart="999.32"/>
    <vehicle id="EB_274" type="car" route="EB" depart="1001.18"/>
    <vehicle id="EB_275" type="car" route="EB" depart="1002.64"/>
    <vehicle id="EB_276" type="car" route="EB" depart="1004.14"/>
    <vehicle id="EB_277" type="car" route="EB" depart="1005.50"/>
    <vehicle id="EB_278" type="car" route="EB" depart="1006.89"/>
    <vehicle id="EB_279" type="car" route="EB" depart="1008.28"/>
    <vehicle id="EB_280" type="car" route="EB" depart="1010.23"/>
    <vehicle id="EB_281" type="car" route="EB" depart="1011.76"/>
    <vehicle id="EB_282" type="car" route="EB" depart="1013.22"/>
    <vehicle id="EB_283" type="car" route="EB" depart="1014.59"/>
    <vehicle id="EB_284" type="car" route="EB" depart="1016.13"/>
    <vehicle id="EB_285" type="car" route="EB" depart="1017.96"/>
    <vehicle id="EB_286" type="car" route="EB" depart="1019.45"/>
    <vehicle id="EB_287" type="car" route="EB" depart="1021.38"/>
    <vehicle id="EB_288" type="car" route="EB" depart="1022.97"/>
    <vehicle id="EB_289" type="car" route="EB" depart="1024.97"/>
    <vehicle id="EB_290" type="car" route="EB" depart="1026.73"/>
    <vehicle id="EB_291" type="car" route="EB" depart="1028.32"/>
    <vehicle id="EB_292" type="car" route="EB" depart="1029.80"/>
    <vehicle id="EB_293" type="car" route="EB" depart="1031.40"/>
    <vehicle id="EB_294" type="car" route="EB" depart="1033.02"/>
    <vehicle id="EB_295" type="car" route="EB" depart="1034.51"/>
    <vehicle id="EB_296" type="car" route="EB" depart="1036.28"/>
    <vehicle id="EB_297" type="car" route="EB" depart="1038.19"/>
    <vehicle id="EB_298" type="car" route="EB" depart="1039.76"/>
    <vehicle id="EB_299" type="car" route="EB" depart="1041.34"/>
    <vehicle id="EB_300" type="car" route="EB" depart="1043.12"/>
    <vehicle id="EB_301" type="car" route="EB" depart="1044.32"/>
    <vehicle id="EB_302" type="car" route="EB" depart="1045.88"/>
    <vehicle id="EB_303" type="car" route="EB" depart="1047.35"/>
    <vehicle id="EB_304" type="car" route="EB" depart="1049.27"/>
    <vehicle id="EB_305" type="car" route="EB" depart="1050.54"/>
    <vehicle id="EB_306" type="car" route="EB" depart="1052.08"/>
    <vehicle id="EB_307" type="car" route="EB" depart="1053.58"/>
    <vehicle id="EB_308" type="car" route="EB" depart="1055.06"/>
    <vehicle id="EB_309" type="car" route="EB" depart="1056.34"/>
    <vehicle id="EB_310" type="car" route="EB" depart="1057.67"/>
    <vehicle id="EB_311" type="car" route="EB" depart="1059.34"/>
    <vehicle id="EB_312" type="car" route="EB" depart="1060.82"/>
    <vehicle id="EB_313" type="car" route="EB" depart="1062.14"/>
    <vehicle id="EB_314" type="car" route="EB" depart="1063.39"/>
    <vehicle id="EB_315" type="car" route="EB" depart="1065.00"/>
    <vehicle id="EB_316" type="car" route="EB" depart="1066.38"/>
    <vehicle id="EB_317" type="car" route="EB" depart="1067.67"/>
    <vehicle id="EB_318" type="car" route="EB" depart="1068.97"/>
    <vehicle id="EB_319" type="car" route="EB" depart="1070.66"/>
    <vehicle id="EB_320" type="car" route="EB" depart="1072.09"/>
    <vehicle id="EB_321" type="car" route="EB" depart="1073.99"/>
    <vehicle id="EB_322" type="car" route="EB" depart="1075.69"/>
    <vehicle id="EB_323" type="car" route="EB" depart="1077.22"/>
    <vehicle id="EB_324" type="car" route="EB" depart="1078.68"/>
    <vehicle id="EB_325" type="car" route="EB" depart="1080.29"/>
    <vehicle id="EB_326" type="car" route="EB" depart="1081.58"/>
    <vehicle id="EB_327" type="car" route="EB" depart="1082.96"/>
    <vehicle id="EB_328" type="car" route="EB" depart="1084.85"/>
    <vehicle id="EB_329" type="car" route="EB" depart="1086.78"/>
    <vehicle id="EB_330" type="car" route="EB" depart="1088.56"/>
    <vehicle id="EB_331" type="car" route="EB" depart="1090.56"/>
    <vehicle id="EB_332" type="car" route="EB" depart="1091.78"/>
    <vehicle id="EB_333" type="car" route="EB" depart="1093.71"/>
    <vehicle id="EB_334" type="car" route="EB" depart="1095.00"/>
    <vehicle id="EB_335" type="car" route="EB" depart="1096.33"/>
    <vehicle id="EB_336" type="car" route="EB" depart="1097.91"/>
    <vehicle id="EB_337" type="car" route="EB" depart="1099.81"/>
    <vehicle id="EB_338" type="car" route="EB" depart="1101.32"/>
    <vehicle id="EB_339" type="car" route="EB" depart="1102.75"/>
    <vehicle id="EB_340" type="car" route="EB" depart="1104.51"/>
    <vehicle id="EB_341" type="car" route="EB" depart="1105.76"/>
    <vehicle id="EB_342" type="car" route="EB" depart="1107.51"/>
    <vehicle id="EB_343" type="car" route="EB" depart="1109.28"/>
    <vehicle id="EB_344" type="car" route="EB" depart="1110.54"/>
    <vehicle id="EB_345" type="car" route="EB" depart="1111.89"/>
    <vehicle id="EB_346" type="car" route="EB" depart="1113.33"/>
    <vehicle id="EB_347" type="car" route="EB" depart="1114.91"/>
    <vehicle id="EB_348" type="car" route="EB" depart="1116.50"/>
    <vehicle id="EB_349" type="car" route="EB" depart="1118.33"/>
    <vehicle id="EB_350" type="car" route="EB" depart="1119.67"/>
    <vehicle id="EB_351" type="car" route="EB" depart="1121.17"/>
    <vehicle id="EB_352" type="car" route="EB" depart="1122.40"/>
    <vehicle id="EB_353" type="car" route="EB" depart="1124.05"/>
    <vehicle id="EB_354" type="car" route="EB" depart="1125.61"/>
    <vehicle id="EB_355" type="car" route="EB" depart="1127.31"/>
    <vehicle id="EB_356" type="car" route="EB" depart="1129.19"/>
    <vehicle id="EB_357" type="car" route="EB" depart="1130.41"/>
    <vehicle id="EB_358" type="car" route="EB" depart="1131.87"/>
    <vehicle id="EB_359" type="car" route="EB" depart="1133.25"/>
    <vehicle id="EB_360" type="car" route="EB" depart="1134.86"/>
    <vehicle id="EB_361" type="car" route="EB" depart="1136.52"/>
    <vehicle id="EB_362" type="car" route="EB" depart="1138.36"/>
    <vehicle id="EB_363" type="car" route="EB" depart="1140.04"/>
    <vehicle id="EB_364" type="car" route="EB" depart="1141.63"/>
    <vehicle id="EB_365" type="car" route="EB" depart="1143.49"/>
    <vehicle id="EB_366" type="car" route="EB" depart="1145.10"/>
    <vehicle id="EB_367" type="car" route="EB" depart="1146.46"/>
    <vehicle id="EB_368" type="car" route="EB" depart="1147.93"/>
    <vehicle id="EB_369" type="car" route="EB" depart="1149.66"/>
    <vehicle id="EB_370" type="car" route="EB" depart="1151.33"/>
    <vehicle id="EB_371" type="car" route="EB" depart="1152.57"/>
    <vehicle id="EB_372" type="car" route="EB" depart="1154.14"/>
    <vehicle id="EB_373" type="car" route="EB" depart="1155.84"/>
    <vehicle id="EB_374" type="car" route="EB" depart="1157.73"/>
    <vehicle id="EB_375" type="car" route="EB" depart="1159.02"/>
    <vehicle id="EB_376" type="car" route="EB" depart="1160.31"/>
    <vehicle id="EB_377" type="car" route="EB" depart="1162.27"/>
    <vehicle id="EB_378" type="car" route="EB" depart="1163.71"/>
    <vehicle id="EB_379" type="car" route="EB" depart="1165.17"/>
    <vehicle id="EB_380" type="car" route="EB" depart="1167.09"/>
    <vehicle id="EB_381" type="car" route="EB" depart="1168.59"/>
    <vehicle id="EB_382" type="car" route="EB" depart="1170.20"/>
    <vehicle id="EB_383" type="car" route="EB" depart="1171.52"/>
    <vehicle id="EB_384" type="car" route="EB" depart="1173.36"/>
    <vehicle id="EB_385" type="car" route="EB" depart="1174.87"/>
    <vehicle id="EB_386" type="car" route="EB" depart="1176.64"/>
    <vehicle id="EB_387" type="car" route="EB" depart="1178.36"/>
    <vehicle id="EB_388" type="car" route="EB" depart="1179.94"/>
    <vehicle id="EB_389" type="car" route="EB" depart="1181.89"/>
    <vehicle id="EB_390" type="car" route="EB" depart="1183.26"/>
    <vehicle id="EB_391" type="car" route="EB" depart="1184.77"/>
    <vehicle id="EB_392" type="car" route="EB" depart="1186.08"/>
    <vehicle id="EB_393" type="car" route="EB" depart="1187.52"/>
    <vehicle id="EB_394" type="car" route="EB" depart="1189.17"/>
    <vehicle id="EB_395" type="car" route="EB" depart="1190.68"/>
    <vehicle id="EB_396" type="car" route="EB" depart="1192.64"/>
    <vehicle id="EB_397" type="car" route="EB" depart="1194.61"/>
    <vehicle id="EB_398" type="car" route="EB" depart="1195.98"/>
    <vehicle id="EB_399" type="car" route="EB" depart="1197.98"/>
    <vehicle id="EB_400" type="car" route="EB" depart="1199.80"/>
    <vehicle id="EB_401" type="car" route="EB" depart="1201.43"/>
    <vehicle id="EB_402" type="car" route="EB" depart="1203.22"/>
    <vehicle id="EB_403" type="car" route="EB" depart="1204.95"/>
    <vehicle id="EB_404" type="car" route="EB" depart="1206.20"/>
    <vehicle id="EB_405" type="car" route="EB" depart="1208.10"/>
    <vehicle id="EB_406" type="car" route="EB" depart="1210.05"/>
    <vehicle id="EB_407" type="car" route="EB" depart="1212.00"/>
    <vehicle id="EB_408" type="car" route="EB" depart="1213.92"/>
    <vehicle id="EB_409" type="car" route="EB" depart="1215.62"/>
    <vehicle id="EB_410" type="car" route="EB" depart="1217.44"/>
    <vehicle id="EB_411" type="car" route="EB" depart="1218.97"/>
    <vehicle id="EB_412" type="car" route="EB" depart="1220.62"/>
    <vehicle id="EB_413" type="car" route="EB" depart="1221.94"/>
    <vehicle id="EB_414" type="car" route="EB" depart="1223.90"/>
    <vehicle id="EB_415" type="car" route="EB" depart="1225.54"/>
    <vehicle id="EB_416" type="car" route="EB" depart="1226.76"/>
    <vehicle id="EB_417" type="car" route="EB" depart="1228.58"/>
    <vehicle id="EB_418" type="car" route="EB" depart="1230.24"/>
    <vehicle id="EB_419" type="car" route="EB" depart="1231.83"/>
    <vehicle id="EB_420" type="car" route="EB" depart="1235.64"/>
    <vehicle id="EB_421" type="car" route="EB" depart="1239.75"/>
    <vehicle id="EB_422" type="car" route="EB" depart="1244.74"/>
    <vehicle id="EB_423" type="car" route="EB" depart="1248.43"/>
    <vehicle id="EB_424" type="car" route="EB" depart="1251.89"/>
    <vehicle id="EB_425" type="car" route="EB" depart="1255.77"/>
    <vehicle id="EB_426" type="car" route="EB" depart="1259.60"/>
    <vehicle id="EB_427" type="car" route="EB" depart="1263.36"/>
    <vehicle id="EB_428" type="car" route="EB" depart="1266.59"/>
    <vehicle id="EB_429" type="car" route="EB" depart="1269.62"/>
    <vehicle id="EB_430" type="car" route="EB" depart="1272.73"/>
    <vehicle id="EB_431" type="car" route="EB" depart="1277.03"/>
    <vehicle id="EB_432" type="car" route="EB" depart="1281.77"/>
    <vehicle id="EB_433" type="car" route="EB" depart="1285.89"/>
    <vehicle id="EB_434" type="car" route="EB" depart="1290.08"/>
    <vehicle id="EB_435" type="car" route="EB" depart="1293.64"/>
    <vehicle id="EB_436" type="car" route="EB" depart="1298.61"/>
    <vehicle id="EB_437" type="car" route="EB" depart="1302.22"/>
    <vehicle id="EB_438" type="car" route="EB" depart="1305.58"/>
    <vehicle id="EB_439" type="car" route="EB" depart="1310.23"/>
    <vehicle id="EB_440" type="car" route="EB" depart="1314.60"/>
    <vehicle id="EB_441" type="car" route="EB" depart="1318.72"/>
    <vehicle id="EB_442" type="car" route="EB" depart="1322.90"/>
    <vehicle id="EB_443" type="car" route="EB" depart="1326.53"/>
    <vehicle id="EB_444" type="car" route="EB" depart="1329.69"/>
    <vehicle id="EB_445" type="car" route="EB" depart="1333.98"/>
    <vehicle id="EB_446" type="car" route="EB" depart="1338.16"/>
    <vehicle id="EB_447" type="car" route="EB" depart="1342.70"/>
    <vehicle id="EB_448" type="car" route="EB" depart="1347.56"/>